*Heading
** Job name: MPK-Linear Model name: MPK
** Generated by: Abaqus/CAE Student Edition 2018
*Preprint, echo=NO, model=NO, history=NO, contact=NO
**
** PARTS
**
*Part, name=MPK
*Node
      1,   30.1499996,          50.,        3200.
      2,   30.1499996,          50.,           0.
      3,  -30.1499996,          50.,           0.
      4,  -30.1499996,          50.,        3200.
      5,  -30.1499996,           3.,        3200.
      6,  -30.1499996,           3.,           0.
      7,  -130.149994,           3.,        3200.
      8,  -130.149994,           3.,           0.
      9,   130.149994,           3.,        3200.
     10,   30.1499996,           3.,        3200.
     11,   30.1499996,           3.,           0.
     12,   130.149994,           3.,           0.
     13,   30.1499996,          50.,   3066.66675
     14,   30.1499996,          50.,   2933.33325
     15,   30.1499996,          50.,        2800.
     16,   30.1499996,          50.,   2666.66675
     17,   30.1499996,          50.,   2533.33325
     18,   30.1499996,          50.,        2400.
     19,   30.1499996,          50.,   2266.66675
     20,   30.1499996,          50.,   2133.33325
** ... 930 like lines cut
*Element, type=S4R
  1,   1,  13, 215,  68
  2,  13,  14, 216, 215
  3,  14,  15, 217, 216
  4,  15,  16, 218, 217
  5,  16,  17, 219, 218
  6,  17,  18, 220, 219
  7,  18,  19, 221, 220
  8,  19,  20, 222, 221
  9,  20,  21, 223, 222
 10,  21,  22, 224, 223
 11,  22,  23, 225, 224
 12,  23,  24, 226, 225
 13,  24,  25, 227, 226
 14,  25,  26, 228, 227
 15,  26,  27, 229, 228
 16,  27,  28, 230, 229
 17,  28,  29, 231, 230
 18,  29,  30, 232, 231
 19,  30,  31, 233, 232
 20,  31,  32, 234, 233
** ... 892 like lines cut
*Nset, nset=_PickedSet2, internal
   5,   6,   7,   8,   9,  10,  11,  12,  86,  87,  88,  89,  90,  91,  92,  93
  94,  95,  96,  97,  98,  99, 100, 101, 102, 103, 104, 105, 106, 107, 108, 112
 113, 114, 115, 116, 117, 118, 119, 120, 121, 122, 123, 124, 125, 126, 127, 128
 129, 130, 131, 132, 133, 134, 135, 136, 137, 138, 139, 140, 141, 142, 143, 144
 145, 146, 147, 148, 149, 150, 151, 152, 153, 154, 155, 156, 157, 158, 159, 160
 161, 162, 163, 164, 165, 166, 167, 168, 169, 170, 171, 172, 173, 174, 175, 176
 177, 178, 179, 180, 181, 182, 183, 184, 185, 186, 187, 188, 189, 190, 191, 192
 193, 194, 195, 196, 197, 198, 199, 200, 201, 202, 203, 204, 205, 206, 207, 208
 560, 561, 562, 563, 564, 565, 566, 567, 568, 569, 570, 571, 572, 573, 574, 575
 576, 577, 578, 579, 580, 581, 582, 583, 584, 585, 586, 587, 588, 589, 590, 591
 592, 593, 594, 595, 596, 597, 598, 599, 600, 601, 602, 603, 604, 605, 606, 607
 608, 609, 610, 611, 612, 613, 614, 615, 616, 617, 618, 619, 620, 621, 622, 623
 624, 625, 626, 627, 628, 629, 630, 631, 632, 633, 634, 635, 636, 637, 638, 639
 640, 641, 642, 643, 644, 645, 646, 647, 648, 649, 650, 651, 652, 653, 654, 655
 656, 657, 658, 659, 660, 661, 662, 663, 664, 665, 666, 667, 668, 669, 670, 671
 672, 673, 674, 675, 676, 677, 678, 679, 680, 681, 682, 683, 684, 685, 686, 687
 688, 689, 690, 691, 692, 693, 694, 695, 696, 697, 698, 699, 700, 701, 702, 703
 704, 705, 706, 707, 708, 709, 710, 711, 712, 713, 714, 715, 716, 717, 718, 719
 720, 721, 722, 723, 724, 725, 726, 727, 728, 729, 730, 731, 732, 733, 734, 735
 736, 737, 738, 739, 740, 741, 742, 743, 744, 745, 746, 747, 748, 749, 750, 751
** ... 9 like lines cut
*Elset, elset=_PickedSet2, internal, generate
 433,  816,    1
*Nset, nset=_PickedSet3, internal
   1,   2,   3,   4,   5,   6,  10,  11,  13,  14,  15,  16,  17,  18,  19,  20
  21,  22,  23,  24,  25,  26,  27,  28,  29,  30,  31,  32,  33,  34,  35,  41
  42,  43,  44,  45,  46,  47,  48,  49,  50,  51,  52,  53,  54,  55,  56,  57
  58,  59,  60,  61,  62,  63,  83,  84,  85,  86,  87,  88,  89,  90,  91,  92
  93,  94,  95,  96,  97,  98,  99, 100, 101, 102, 103, 104, 105, 106, 107, 108
 109, 110, 111, 156, 157, 158, 159, 160, 161, 162, 163, 164, 165, 166, 167, 168
 169, 170, 171, 172, 173, 174, 175, 176, 177, 178, 209, 210, 211, 212, 213, 214
 491, 492, 493, 494, 495, 496, 497, 498, 499, 500, 501, 502, 503, 504, 505, 506
 507, 508, 509, 510, 511, 512, 513, 514, 515, 516, 517, 518, 519, 520, 521, 522
 523, 524, 525, 526, 527, 528, 529, 530, 531, 532, 533, 534, 535, 536, 537, 538
 539, 540, 541, 542, 543, 544, 545, 546, 547, 548, 549, 550, 551, 552, 553, 554
 555, 556, 557, 558, 559, 882, 883, 884, 885, 886, 887, 888, 889, 890, 891, 892
 893, 894, 895, 896, 897, 898, 899, 900, 901, 902, 903, 904, 905, 906, 907, 908
 909, 910, 911, 912, 913, 914, 915, 916, 917, 918, 919, 920, 921, 922, 923, 924
 925, 926, 927, 928, 929, 930, 931, 932, 933, 934, 935, 936, 937, 938, 939, 940
 941, 942, 943, 944, 945, 946, 947, 948, 949, 950
*Elset, elset=_PickedSet3, internal
 337, 338, 339, 340, 341, 342, 343, 344, 345, 346, 347, 348, 349, 350, 351, 352
 353, 354, 355, 356, 357, 358, 359, 360, 361, 362, 363, 364, 365, 366, 367, 368
 369, 370, 371, 372, 373, 374, 375, 376, 377, 378, 379, 380, 381, 382, 383, 384
 385, 386, 387, 388, 389, 390, 391, 392, 393, 394, 395, 396, 397, 398, 399, 400
 401, 402, 403, 404, 405, 406, 407, 408, 409, 410, 411, 412, 413, 414, 415, 416
 417, 418, 419, 420, 421, 422, 423, 424, 425, 426, 427, 428, 429, 430, 431, 432
 817, 818, 819, 820, 821, 822, 823, 824, 825, 826, 827, 828, 829, 830, 831, 832
 833, 834, 835, 836, 837, 838, 839, 840, 841, 842, 843, 844, 845, 846, 847, 848
 849, 850, 851, 852, 853, 854, 855, 856, 857, 858, 859, 860, 861, 862, 863, 864
 865, 866, 867, 868, 869, 870, 871, 872, 873, 874, 875, 876, 877, 878, 879, 880
 881, 882, 883, 884, 885, 886, 887, 888, 889, 890, 891, 892, 893, 894, 895, 896
 897, 898, 899, 900, 901, 902, 903, 904, 905, 906, 907, 908, 909, 910, 911, 912
*Nset, nset=_PickedSet4, internal
   1,   2,   3,   4,  13,  14,  15,  16,  17,  18,  19,  20,  21,  22,  23,  24
  25,  26,  27,  28,  29,  30,  31,  32,  33,  34,  35,  36,  37,  38,  39,  40
  41,  42,  43,  44,  45,  46,  47,  48,  49,  50,  51,  52,  53,  54,  55,  56
  57,  58,  59,  60,  61,  62,  63,  64,  65,  66,  67,  68,  69,  70,  71,  72
  73,  74,  75,  76,  77,  78,  79,  80,  81,  82, 215, 216, 217, 218, 219, 220
 221, 222, 223, 224, 225, 226, 227, 228, 229, 230, 231, 232, 233, 234, 235, 236
 237, 238, 239, 240, 241, 242, 243, 244, 245, 246, 247, 248, 249, 250, 251, 252
 253, 254, 255, 256, 257, 258, 259, 260, 261, 262, 263, 264, 265, 266, 267, 268
 269, 270, 271, 272, 273, 274, 275, 276, 277, 278, 279, 280, 281, 282, 283, 284
 285, 286, 287, 288, 289, 290, 291, 292, 293, 294, 295, 296, 297, 298, 299, 300
 301, 302, 303, 304, 305, 306, 307, 308, 309, 310, 311, 312, 313, 314, 315, 316
 317, 318, 319, 320, 321, 322, 323, 324, 325, 326, 327, 328, 329, 330, 331, 332
 333, 334, 335, 336, 337, 338, 339, 340, 341, 342, 343, 344, 345, 346, 347, 348
 349, 350, 351, 352, 353, 354, 355, 356, 357, 358, 359, 360, 361, 362, 363, 364
 365, 366, 367, 368, 369, 370, 371, 372, 373, 374, 375, 376, 377, 378, 379, 380
 381, 382, 383, 384, 385, 386, 387, 388, 389, 390, 391, 392, 393, 394, 395, 396
 397, 398, 399, 400, 401, 402, 403, 404, 405, 406, 407, 408, 409, 410, 411, 412
 413, 414, 415, 416, 417, 418, 419, 420, 421, 422, 423, 424, 425, 426, 427, 428
 429, 430, 431, 432, 433, 434, 435, 436, 437, 438, 439, 440, 441, 442, 443, 444
 445, 446, 447, 448, 449, 450, 451, 452, 453, 454, 455, 456, 457, 458, 459, 460
 461, 462, 463, 464, 465, 466, 467, 468, 469, 470, 471, 472, 473, 474, 475, 476
 477, 478, 479, 480, 481, 482, 483, 484, 485, 486, 487, 488, 489, 490
*Elset, elset=_PickedSet4, internal, generate
   1,  336,    1
** Section: tube
*Shell Section, elset=_PickedSet4, material=steel
2.3, 5
** Section: shortplate
*Shell Section, elset=_PickedSet3, material=steel
6., 5
** Section: longplate
*Shell Section, elset=_PickedSet2, material=steel
6., 5
*End Part
**  
**
** ASSEMBLY
**
*Assembly, name=Assembly
**  
*Instance, name=MPK, part=MPK
*End Instance
**  
*Nset, nset=_G3, internal, instance=MPK
   5,   6,   7,   8,   9,  10,  11,  12, 112, 113, 114, 115, 116, 117, 118, 142
 143, 144, 145, 146, 147, 148, 149, 150, 151, 152, 153, 154, 155, 179, 180, 181
 182, 183, 184, 185
*Elset, elset=_G3, internal, instance=MPK
 433, 434, 435, 436, 437, 438, 439, 440, 617, 618, 619, 620, 621, 622, 623, 624
 625, 626, 627, 628, 629, 630, 631, 632, 809, 810, 811, 812, 813, 814, 815, 816
*Nset, nset=_G4, internal, instance=MPK
  6, 11
*Elset, elset=__PickedSurf5_SNEG, internal, instance=MPK, generate
 433,  816,    1
*Surface, type=ELEMENT, name=_PickedSurf5, internal
__PickedSurf5_SNEG, SNEG
*End Assembly
** 
** MATERIALS
** 
*Material, name=steel
*Density
 7.84e-06,
*Elastic
210000., 0.3
** ----------------------------------------------------------------
** 
** STEP: Linear
** 
*Step, name=Linear, nlgeom=NO
*Static
1., 1., 1e-05, 1.
** 
** BOUNDARY CONDITIONS
** 
** Name: rigid body modes Type: Displacement/Rotation
*Boundary
_G4, 1, 1
_G4, 3, 3
_G4, 5, 5
** Name: vertical support Type: Displacement/Rotation
*Boundary
_G3, 2, 2
** 
** LOADS
** 
** Name: Pressure   Type: Pressure
*Dsload
_PickedSurf5, P, 0.0421875
** 
** OUTPUT REQUESTS
** 
*Restart, write, frequency=0
** 
** FIELD OUTPUT: F-Output-1
** 
*Output, field, variable=PRESELECT
** 
** HISTORY OUTPUT: H-Output-1
** 
*Output, history, variable=PRESELECT
*End Step
